data_block_1
_audit_creation_date         'Tue Feb 21 16:10:38 2017'
_audit_creation_method       'generated by GDIS v0.90'


_cell_length_a              6.6387
_cell_length_b             15.7610
_cell_length_c             14.1961
_cell_angle_alpha          90.00
_cell_angle_beta           90.00
_cell_angle_gamma          90.00


_symmetry_space_group_name_H-M   'P 1'
_symmetry_Int_Tables_number       1


loop_
_atom_site_label
_atom_site_fract_x
_atom_site_fract_y
_atom_site_fract_z
Al    0.2500    0.2500    0.7500
 O    0.0000    0.2500    0.6728
 C    0.0000    0.9343    0.0631
 C    0.1787    0.9671    0.0315
 C    0.1787    0.0329    0.9684
 C    0.0000    0.0658    0.9369
 C    0.0000    0.8623    0.1322
 O    0.1696    0.8311    0.1621
 C    0.0000    0.1377    0.8678
 O    0.1696    0.1689    0.8379
Al    0.7500    0.2500    0.7500
 C    0.8213    0.9671    0.0315
 C    0.8213    0.0329    0.9684
 O    0.8304    0.8311    0.1621
 O    0.8304    0.1689    0.8379
 C    0.0000    0.5657    0.0631
 C    0.1787    0.5329    0.0315
 C    0.1787    0.4671    0.9684
 C    0.0000    0.4343    0.9369
 C    0.0000    0.6377    0.1322
 O    0.1696    0.6689    0.1621
 C    0.0000    0.3623    0.8678
 O    0.1696    0.3311    0.8379
 C    0.8213    0.5329    0.0315
 C    0.8213    0.4671    0.9684
 O    0.8304    0.6689    0.1621
 O    0.8304    0.3311    0.8379
Al    0.7500    0.7500    0.2500
 O    0.0000    0.7500    0.3272
Al    0.2500    0.7500    0.2500
 O    0.5000    0.7500    0.1728
 C    0.5000    0.4343    0.5631
 C    0.6787    0.4671    0.5315
 C    0.6787    0.5329    0.4684
 C    0.5000    0.5657    0.4369
 C    0.5000    0.3623    0.6322
 O    0.6696    0.3311    0.6621
 C    0.5000    0.6377    0.3678
 O    0.6696    0.6689    0.3379
 C    0.3213    0.4671    0.5315
 C    0.3213    0.5329    0.4684
 O    0.3304    0.3311    0.6621
 O    0.3304    0.6689    0.3379
 C    0.5000    0.0658    0.5631
 C    0.6787    0.0329    0.5315
 C    0.6787    0.9671    0.4684
 C    0.5000    0.9343    0.4369
 C    0.5000    0.1377    0.6322
 O    0.6696    0.1689    0.6621
 C    0.5000    0.8623    0.3678
 O    0.6696    0.8311    0.3379
 C    0.3213    0.0329    0.5315
 C    0.3213    0.9671    0.4684
 O    0.3304    0.1689    0.6621
 O    0.3304    0.8311    0.3379
 O    0.5000    0.2500    0.8272


